50
comment string
Ba -5.069361 -3.802021 -6.011522
Ba -7.604041 3.802021 -6.011522
Ba -2.534680 1.267340 -6.011522
Ba -10.138722 -1.267340 -6.011522
Ba -6.336701 0.000000 -6.011522
Ba -5.069361 3.802021 -2.003841
Ba -7.604041 -3.802021 -2.003841
Ba -2.534680 -1.267340 -2.003841
Ba -10.138722 1.267340 -2.003841
Ba -6.336701 0.000000 -2.003841
O -10.772392 0.633670 -8.015363
O -6.970371 1.901010 -8.015363
O -1.901010 -0.633670 -0.000000
O -3.168351 3.168351 -8.015363
O -5.703031 -1.901010 -0.000000
O -6.970371 -4.435691 -8.015363
O -3.168351 -3.168351 -8.015363
O -4.435691 0.633670 -8.015363
O -5.703031 4.435691 -0.000000
O -8.237711 -0.633670 -8.015363
O 0.000000 0.000000 -6.011522
O -8.871381 1.267340 -6.011522
O -3.802021 -1.267340 -6.011522
O -5.069361 2.534680 -6.011522
O -7.604041 -2.534680 -6.011522
O -10.772392 -0.633670 -4.007682
O -6.970371 -1.901010 -4.007682
O -1.901010 0.633670 -4.007682
O -3.168351 -3.168351 -4.007682
O -5.703031 1.901010 -4.007682
O -6.970371 4.435691 -4.007682
O -9.505052 -3.168351 -4.007682
O -4.435691 -0.633670 -4.007682
O -5.703031 -4.435691 -4.007682
O -8.237711 0.633670 -4.007682
O -12.673402 0.000000 -2.003841
O -8.871381 -1.267340 -2.003841
O -3.802021 1.267340 -2.003841
O -5.069361 -2.534680 -2.003841
O -7.604041 2.534680 -2.003841
Ti 0.000000 0.000000 0.000000
Ti -8.871381 1.267340 -8.015363
Ti -3.802021 -1.267340 -0.000000
Ti -5.069361 2.534680 -0.000000
Ti -7.604041 -2.534680 -8.015363
Ti -12.673402 0.000000 -4.007682
Ti -8.871381 -1.267340 -4.007682
Ti -3.802021 1.267340 -4.007682
Ti -5.069361 -2.534680 -4.007682
Ti -7.604041 2.534680 -4.007682
